Version 4.1
SHEET 1 3200 7408
WIRE 1472 112 1440 112
WIRE 1568 112 1536 112
WIRE 816 160 816 144
WIRE 816 160 800 160
WIRE 1440 192 1440 112
WIRE 1456 192 1440 192
WIRE 1568 192 1536 192
WIRE 1440 256 1440 192
WIRE 1472 256 1440 256
WIRE 1232 272 1152 272
WIRE 1344 272 1312 272
WIRE 1424 272 1344 272
WIRE 1568 272 1568 192
WIRE 1568 272 1536 272
WIRE 1152 288 1152 272
WIRE 1344 288 1344 272
WIRE 1424 288 1424 272
WIRE 1472 288 1424 288
FLAG 800 160 0
FLAG 816 64 12
FLAG 1344 352 0
FLAG 1152 368 0
FLAG 1504 240 12
FLAG 1360 192 0
FLAG 1504 304 0
SYMBOL voltage 816 48 R0
WINDOW 123 0 0 Left 0
WINDOW 39 0 0 Left 0
SYMATTR InstName V1
SYMATTR Value 12
SYMBOL res 1328 256 R90
WINDOW 0 0 56 VBottom 2
WINDOW 3 32 56 VTop 2
SYMATTR InstName R7
SYMATTR Value 10k
SYMBOL cap 1328 288 R0
SYMATTR InstName C3
SYMATTR Value 4.7µ
SYMBOL voltage 1152 272 R0
WINDOW 3 -24 144 Left 2
WINDOW 123 0 0 Left 0
WINDOW 39 0 0 Left 0
SYMATTR Value PULSE(0 5 100m 100n 100n 1m 2m)
SYMATTR InstName V5
SYMBOL res 1456 176 R90
WINDOW 0 0 56 VBottom 2
WINDOW 3 32 56 VTop 2
SYMATTR InstName R10
SYMATTR Value 10k
SYMBOL res 1552 176 R90
WINDOW 0 0 56 VBottom 2
WINDOW 3 30 88 VTop 2
SYMATTR InstName R11
SYMATTR Value 10k
SYMBOL cap 1536 96 R90
WINDOW 0 0 32 VBottom 2
WINDOW 3 32 32 VTop 2
SYMATTR InstName C5
SYMATTR Value 4.7µ
SYMBOL OpAmps\\opamp2 1504 208 R0
SYMATTR InstName U5
SYMATTR Value NCS2007
TEXT 824 344 Left 2 !.tran 500m
TEXT 2368 0 Left 2 !* ON SEMICONDUCTOR NEXT GEN MODEL, JAN 2019\n* BEGIN MODEL NCS2007\n*\n* MODEL FEATURES INCLUDE OUTPUT SWING, OUTPUT CURRENT\n* THROUGH THE SUPPLY RAILS, RAIL-TO-RAIL OUTPUT STAGE,\n* OUTPUT CURRENT LIMIT, UNSYMETRICAL SLEW RATE WITH\n* TEMPERATURE EFFECTS , OUTPUT SWING VERSUS CURRENT\n* AND TEMPERATURE, OPEN LOOP GAIN AND PHASE WITH RL\n* AND CL EFFECTS, POWER SUPPLY REJECTION WITH\n* FREQUENCY EFFECTS, COMMON MODE REJECTION WITH\n* FREQUENCY AND SUPPLY VOLTAGE EFFECTS, ROUGH SETTLING\n* TIME, INPUT VOLTAGE NOISE, INPUT CURRENT NOISE,\n* INPUT BIAS CURRENT WITH TEMPERATURE EFFECTS, INPUT\n* CAPACITANCE, INPUT COMMON MODE RANGE, OFFSET WITH\n* TEMPERATURE EFFECTS, INPUT AND OUTPUT CLAMPS TO\n* THE RAILS, INPUT DIFFERENTIAL CLAMP, INPUT EMI\n* FILTER, AND QUIESCENT CURRENT WITH VOLTAGE AND\n* TEMPERATURE EFFECTS.\n*\n* MODEL TOTAL SUPPLY VOLTAGE RANGE IS 2.7 TO 36 V.\n* MODEL TEMP RANGE IS -40 TO +125 DEG C.\n* NOTE THAT MODEL IS FUNCTIONAL OVER THIS RANGE BUT\n* NOT ALL PARAMETERS TRACK THOSE OF THE REAL PART.\n \n* NOTE - FOR ACCURATE BIAS CURRENTS AT ROOM AND COLD\n* SET THE SPICE ANALYSIS OPTIONS AS FOLLOWS:\n* GMIN 1E-13, ABSTOL 1E-14, RELTOL 1E-6.\n* ALL OF THESE OPTIONS ARE SMALLER THAN THE\n* DEFAULTS IN MOST SIMULATORS, SET THEM ALL AS SMALL\n* AS WILL ALLOW CONVERGANCE ON YOUR SIMULATOR.\n \n* IF YOU ARE USING LTSPICE17 ADD THE OPTIONS\n* PLOTRELTOL=1E-4 AND PLOTVNTOL=1E-6 FOR MORE\n* ACCURATE TIME DOMAIN WAVEFORM PLOTTING.\n*\n* PINOUT  1    2    3    4    5\n* PINOUT +IN  -IN  +V   -V   OUT\n*\n.SUBCKT NCS2007 1 2 3 4 5\nQ20 195 196 112 QN\nR3 197 198 2\nR4 199 198 2\nR10 196 200 1E3\nR11 201 202 1E3\nR12 203 3 0.335\nR13 4 204 0.258\nR17 205 110 0.335\nR18 112 206 0.258\nD7 207 0 DIN\nD8 208 0 DIN\nI8 0 207 12E-6\nI9 0 208 12E-6\nE2 112 0 4 0 1\nE3 110 0 3 0 1\nE4 209 2 210 211 0.068\nG2 212 2 213 214 5.023E-7\nE5 215 0 110 0 1\nE6 216 0 112 0 1\nE7 217 0 VCM 115 1\nR30 215 218 1E6\nR31 216 219 1E6\nR32 217 220 1E6\nR33 0 218 10\nR34 0 219 10\nR35 0 220 10\nE10 144 221 220 0 4E-4\nR36 222 VCM 1E3\nR37 VCM 223 1E3\nC6 215 218 15E-9\nC7 216 219 15E-9\nC8 217 220 400E-12\nE11 224 1 219 0 -0.05\nE12 212 224 218 0 0.05\nE14 115 112 110 112 0.5\nM1 225 113 204 204 NOUT L=3U W=1400U\nM2 226 227 203 203 POUT L=3U W=1400U\nM3 118 118 205 205 POUT L=3U W=1400U\nM4 228 229 197 197 HVP L=30U W=6000U\nM5 230 231 199 199 HVP L=30U W=6000U\nM8 119 119 206 206 NOUT L=3U W=1400U\nR43 111 227 300\nR44 232 113 300\nG3 114 115 233 115 3.33E-4\nR45 115 114 1.2E9\nR46 112 228 490\nR47 112 230 490\nC13 228 230 4.0E-12\nC14 229 0 1.65E-12\nC15 231 0 1.65E-12\nC16 120 0 0.1E-12\nD13 113 195 DB\nD14 234 227 DB\nQ15 234 201 110 QP\nV18 235 229 1.37E-3\nM19 236 237 238 238 PIN L=60U W=5000U\nE17 223 0 212 0 1\nE18 222 0 2 0 1\nM23 237 237 238 238 PIN L=60U W=5000U\nV21 236 239 0\nR59 120 226 35 TC=3.48E-3,1.45E-5\nR60 225 120 28 TC=3.48E-3,1.45E-5\nJ1 240 212 240 JC\nJ2 240 209 240 JC\nJ3 209 241 209 JC\nJ4 212 241 212 JC\nC21 229 231 0.63E-12\nE20 144 115 230 228 1.1\nR62 221 143 1E4\nC23 143 115 3.1E-12\nC27 227 226 200E-15\nC28 225 113 200E-15\nR74 4 3 5.0E6\nG12 3 4 242 0 -3E-3\nI20 0 243 1E-3\nD20 243 0 DB\nV24 243 194 0.71\nR75 0 194 1E6\nI21 3 4 115E-6\nE25 244 0 120 0 1\nC30 114 245 45.0E-12\nR78 245 244 25\nR81 114 244 1.1E9\nI63 0 246 1E-3\nD23 246 0 DD\nR207 0 246 10E6\nV81 246 247 1.798\nR208 0 247 2E7\nE52 248 0 247 0 -0.875\nR209 0 248 1E7\nR212 0 247 2E7\nG14 237 112 122 0 750E-6\nD24 249 250 DL\nV42 250 0 3\nR213 0 249 3.3E7\nG51 2 0 249 0 12.98E-9\nI64 2 0 -3.0E-12\nG52 212 0 249 0 12.72E-9\nI65 212 0 -5.0E-12\nG56 118 119 122 0 250E-6\nR245 0 120 1E9\nS1 120 3 120 3 VSWC\nS2 114 110 114 110 VSWC\nS3 112 114 112 114 VSWC\nS4 251 115 251 115 VSWC\nS5 115 252 115 252 VSWC\nS6 4 120 4 120 VSWC\nE68 116 115 VALUE = {LIMIT(V(114,115),-100,0)}\nE69 117 115 VALUE = {LIMIT(V(114,115),0,100)}\nR255 115 116 1E9\nR256 115 117 1E9\nE70 110 111 VALUE = {V(115,116)-V(118,110)}\nR157 111 110 1E9\nE71 232 112 VALUE = {V(117,115)-V(112,119)}\nR158 112 232 1E9\nE72 200 112 204 112 50\nE73 202 110 203 110 50\nV59 253 112 0.30\nV60 110 254 1.65\nV61 110 238 -1.85\nE89 129 0 110 112 1\nR203 0 129 1E7\nR210 115 144 1E12\nG58 3 4 122 0 530E-16\nV70 122 0 1\nE92 255 256 257 0 1.12E-3\nV71 247 257 -1\nE93 209 255 258 0 -1.2E-7\nR113 0 258 1E9\nD25 239 198 DB\nR217 0 257 1E12\nR220 0 258 1E9\nR230 V1 110 1E3\nR231 259 V1 60E3\nR232 V2 259 60E3\nR233 112 V2 1E3\nE97 VB1 0 VALUE = {LIMIT(V(VC2),V(VC3),99)}\nR234 0 VB1 1E9\nE98 VB2 0 VALUE = {LIMIT(V(VC1),-99,V(VC3))}\nR235 0 VB2 1E9\nE99 VC1 0 VALUE = {4*(V(V1A)-V(VCM))}\nR236 0 VC1 1E9\nE100 VC2 0 VALUE = {4*(V(V2A)-V(VCM))}\nR237 0 VC2 1E9\nE101 VC3 0 VALUE = {V(VCM)*(-1)*0.25}\nR238 0 VC3 1E9\nE102 VB3 0 VALUE = {LIMIT(V(VC3),V(VB2),V(VB1))}\nR239 0 VB3 1E9\nE103 COUT 0 VALUE = {V(VB1)+V(VB2)}\nR240 0 COUT 1E9\nE104 V1A 0 VALUE = {(0.75+0.125)*V(V1)}\nR241 0 V1A 1E9\nE105 V2A 0 VALUE = {(0.75+0.125)*V(V2)}\nR242 0 V2A 1E9\nS8 220 0 220 0 VSWI\nS9 0 220 0 220 VSWI\nR246 207 213 100\nR247 0 213 1E12\nR248 208 214 100\nR249 0 214 1E12\nE106 242 0 VALUE = {V(194)*0.3+ (V(4)-V(3))*(V(4)-V(3))*(-7E-6)}\nR250 0 242 1E9\nV79 251 114 -1.2\nV80 114 252 -1.2\nE109 254 240 194 0 1.25\nE110 241 253 194 0 1.25\nS10 230 228 260 231 VSWV\nS11 230 228 231 261 VSWV\nS12 230 228 260 212 VSWV\nS13 230 228 212 261 VSWV\nV82 110 260 1.25\nR156 260 110 1E12\nV83 261 112 -0.1\nR257 112 261 1E12\nR258 120 5 0.1\nE111 233 115 VALUE = {LIMIT(V(143,115),V(STN)*0.95,V(STP)*0.85)}\nR259 115 233 1E9\nR159 212 262 413\nR160 262 235 413\nC31 262 0 1.2E-14\nR161 263 256 413\nR162 231 263 413\nC32 263 0 1.2E-14\nG59 3 4 3 4 -2.0E-6\nE113 258 0 VALUE = {(12/(V(VCK))*V(COUT))}\nR277 0 258 1E9\nE114 VCL 0 VALUE = {LIMIT((SQRT(V(3)-V(4))+1),2.68,6.30)}\nR278 0 VCL 1E9\nE116 VCK 0 VALUE = {V(VCL)*3-8.5}\nR280 0 VCK 1E9\nE117 STP 0 VALUE = {((V(194)+0.044)*(-0.4))+0.383}\nR284 0 STP 1E9\nE118 0 STN VALUE = {((V(194)+0.044)*(-0.4))+0.383}\nR285 STN 0 1E9\nI11 0 211 0.2E-6\nI10 0 210 0.2E-6\nD9 210 0 DVN\nD10 211 0 DVN\nD26 229 264 DIZ\nD27 231 264 DIZ\n.MODEL NOUT NMOS (LEVEL=3 PHI=0.7 TOX=2E-8 XJ=5E-7\n+ TPG=1 VTO=0.5 DELTA=0.5 LD=1E-7 KP=2E-4 UO=650\n+ THETA=0.1 GAMMA=0.5 NSUB=1E17 NFS=6E11 FC=0.5\n+ VMAX=1E5 ETA=3E-6 KAPPA=10 PB=1 IS=1E-18)\n.MODEL POUT PMOS (LEVEL=3 PHI=0.7 TOX=2E-8 XJ=5E-7\n+ TPG=-1 VTO=-0.5 DELTA=0.5 LD=1E-7 KP=2E-4 UO=650\n+ THETA=0.1 GAMMA=0.5 NSUB=1E17 NFS=6E11 FC=0.5\n+ VMAX=1E5 ETA=3E-6 KAPPA=10 PB=1 IS=1E-18)\n.MODEL DVN D KF=1.45E-14 IS=1E-16 RS=2E6\n.MODEL DIN D KF=3E-15 IS=1E-16 RS=949E3\n.MODEL DIZ D IS=1E-18 RS=174\n.MODEL PIN PMOS KP=200U VTO=-0.7\n.MODEL NIN NMOS KP=200U VTO=0.7\n.MODEL HVP PMOS KP=200U VTO=-0.7\n.MODEL DL D IS=0.95E-12 N=1.47 XTI=3.5\n.MODEL DD D CJO=0.1E-12 TT=10E-9 RS=10\n.MODEL DB D CJO=0.1E-12 TT=10E-9 RS=10\n.MODEL JC NJF VTO=-0.7 BETA=1E-4 CGS=0.03E-12\n+ CGD=0.03E-12 RD=10 RS=10 IS=1E-18\n.MODEL QN NPN\n.MODEL QP PNP\n.MODEL VSWV VSWITCH VON=-0.05 VOFF=0.05 RON=1E-3 ROFF=1E8\n.MODEL VSWC VSWITCH VON=0.71 VOFF=0.62 RON=10 ROFF=1E12\n.MODEL VSWI VSWITCH VON=0.11 VOFF=0.02 RON=1 ROFF=1E11\n.ENDS\n* END MODEL NCS2007
